Version 4
SHEET 1 1724 680
WIRE 528 -288 -64 -288
WIRE 160 -240 16 -240
WIRE 256 -240 160 -240
WIRE 256 -192 256 -240
WIRE 304 -192 256 -192
WIRE 416 -192 384 -192
WIRE 432 -192 416 -192
WIRE 528 -192 528 -288
WIRE 528 -192 512 -192
WIRE 1056 -192 816 -192
WIRE 1136 -192 1120 -192
WIRE 1232 -192 1216 -192
WIRE -64 -160 -64 -288
WIRE -64 -160 -224 -160
WIRE 16 -160 -64 -160
WIRE 160 -160 160 -176
WIRE 160 -160 16 -160
WIRE 16 -112 16 -160
WIRE 16 -112 -80 -112
WIRE 80 -112 16 -112
WIRE 256 -96 256 -192
WIRE 16 -80 16 -112
WIRE 80 -80 80 -112
WIRE 416 -80 416 -192
WIRE 464 -80 416 -80
WIRE 528 -80 528 -192
WIRE 816 -80 816 -112
WIRE 816 -80 528 -80
WIRE 832 -80 816 -80
WIRE 1056 -80 1056 -192
WIRE 1056 -80 1024 -80
WIRE 1344 -80 1056 -80
WIRE 128 0 80 0
WIRE 416 0 416 -80
WIRE 416 0 384 0
WIRE 976 0 960 0
WIRE 1296 0 1184 0
WIRE 960 48 960 0
WIRE 960 48 736 48
WIRE 1136 48 960 48
WIRE -80 64 -80 -112
WIRE 0 64 -16 64
WIRE 128 64 0 64
WIRE 624 64 384 64
WIRE 736 64 736 48
WIRE 736 64 624 64
WIRE 1024 80 1024 16
WIRE 1120 80 1120 -192
WIRE 1120 80 1024 80
WIRE 1232 80 1232 -192
WIRE 1344 80 1344 16
WIRE 1344 80 1232 80
WIRE 944 112 912 112
WIRE 1184 112 1184 0
WIRE 1184 112 944 112
WIRE 0 128 0 64
WIRE 128 128 80 128
WIRE 704 128 384 128
WIRE 912 128 912 112
WIRE 912 128 704 128
WIRE 1024 128 1024 80
WIRE 1344 128 1344 80
WIRE 128 192 -16 192
WIRE 624 208 624 144
WIRE 704 208 624 208
WIRE 832 208 832 -80
WIRE 832 208 704 208
WIRE 944 208 944 112
WIRE 976 208 944 208
WIRE 1136 208 1136 48
WIRE 1296 208 1136 208
WIRE 1088 224 1024 224
WIRE 1344 224 1088 224
WIRE -16 256 -16 192
WIRE 128 256 -16 256
WIRE 656 256 384 256
WIRE 672 256 656 256
WIRE 832 304 832 208
WIRE 1088 304 1088 224
WIRE 1088 304 832 304
WIRE 128 320 16 320
WIRE 480 320 384 320
WIRE 656 352 656 336
WIRE 752 352 656 352
WIRE 1360 352 1328 352
WIRE 1392 352 1360 352
WIRE 1536 352 1456 352
WIRE 656 368 656 352
WIRE 128 384 96 384
WIRE 1536 416 1536 352
WIRE -224 448 -224 -160
WIRE 96 448 96 384
WIRE 96 448 -224 448
WIRE 256 448 256 416
WIRE 256 448 96 448
WIRE 480 448 480 384
WIRE 480 448 256 448
WIRE 656 448 480 448
WIRE 1248 448 1248 352
WIRE 1296 448 1248 448
WIRE 1120 480 1120 80
WIRE 1248 480 1120 480
WIRE 16 544 16 320
WIRE 752 544 752 352
WIRE 752 544 16 544
WIRE 1296 560 1296 448
WIRE 1296 560 1248 560
WIRE 1408 560 1376 560
WIRE -16 608 -16 336
WIRE 1360 608 1360 352
WIRE 1360 608 -16 608
FLAG 16 -80 0
FLAG 1536 416 0
FLAG 1408 560 0
SYMBOL SG3525A 256 160 R0
SYMATTR InstName U1
SYMBOL voltage 16 -256 R0
SYMATTR InstName V1
SYMATTR Value 18
SYMBOL res 400 -208 R90
WINDOW 0 0 56 VBottom 2
WINDOW 3 32 56 VTop 2
SYMATTR InstName R1
SYMATTR Value 3076
SYMBOL res 528 -208 R90
WINDOW 0 0 56 VBottom 2
WINDOW 3 32 56 VTop 2
SYMATTR InstName R2
SYMATTR Value 6923
SYMBOL cap 528 -96 R90
WINDOW 0 0 32 VBottom 2
WINDOW 3 32 32 VTop 2
SYMATTR InstName C1
SYMATTR Value 100µ
SYMBOL cap 144 -240 R0
SYMATTR InstName C2
SYMATTR Value 0.1µ
SYMBOL cap 464 320 R0
SYMATTR InstName C3
SYMATTR Value 100µ
SYMBOL res 640 240 R0
SYMATTR InstName R3
SYMATTR Value 700
SYMBOL res 640 352 R0
SYMATTR InstName R4
SYMATTR Value 300
SYMBOL cap -16 48 R90
WINDOW 0 0 32 VBottom 2
WINDOW 3 32 32 VTop 2
SYMATTR InstName C4
SYMATTR Value 4.7n
SYMBOL res 96 112 R90
WINDOW 0 0 56 VBottom 2
WINDOW 3 32 56 VTop 2
SYMATTR InstName R5
SYMATTR Value 200
SYMBOL res 64 -96 R0
SYMATTR InstName R6
SYMATTR Value 12k
SYMBOL nmos 976 -80 R0
SYMATTR InstName M1
SYMATTR Value IRFZ44N
SYMBOL nmos 976 128 R0
SYMATTR InstName M2
SYMATTR Value IRFZ44N
SYMBOL nmos 1296 -80 R0
SYMATTR InstName M3
SYMATTR Value IRFZ44N
SYMBOL nmos 1296 128 R0
SYMATTR InstName M4
SYMATTR Value IRFZ44N
SYMBOL voltage 816 -208 R0
SYMATTR InstName V2
SYMATTR Value 7.2
SYMBOL res 608 48 R0
SYMATTR InstName R7
SYMATTR Value 18k
SYMBOL res 688 112 R0
SYMATTR InstName R8
SYMATTR Value 18k
SYMBOL res 1232 -208 R90
WINDOW 0 0 56 VBottom 2
WINDOW 3 32 56 VTop 2
SYMATTR InstName R9
SYMATTR Value 1k
SYMBOL res 1344 336 R90
WINDOW 0 0 56 VBottom 2
WINDOW 3 32 56 VTop 2
SYMATTR InstName R10
SYMATTR Value 10k
SYMBOL cap 1456 336 R90
WINDOW 0 0 32 VBottom 2
WINDOW 3 32 32 VTop 2
SYMATTR InstName C5
SYMATTR Value 159n
SYMBOL res 1232 464 R0
SYMATTR InstName R11
SYMATTR Value 400
SYMBOL res 1392 544 R90
WINDOW 0 0 56 VBottom 2
WINDOW 3 32 56 VTop 2
SYMATTR InstName R12
SYMATTR Value 179
TEXT -224 552 Left 2 !.tran 0 0.01 0 0.001
